*Heading
** Job name: Plate_nonlinear_359 Model name: Model-1
** Generated by: Abaqus/CAE 2024.HF3
*Preprint, echo=NO, model=NO, history=NO, contact=NO
**
** PARTS
**
*Part, name=PLATE
*Node
      1,   92.3469009,   119.938789,           0.
      2,   92.3469009,   86.2968063,           0.
      3,   108.679413,   69.9642944,           0.
      4,    158.30896,   69.9642944,           0.
      5,    158.30896,   119.938789,           0.
      6,           0.,   119.938789,           0.
      7,           0.,   69.9642944,           0.
      8,   76.0143814,   69.9642944,           0.
      9,   92.3469009,   53.6317749,           0.
     10,   92.3469009,           0.,           0.
     11,    158.30896,           0.,           0.
     12,           0.,           0.,           0.
     13,   92.3469009,   115.733536,           0.
     14,   92.3469009,    111.52829,           0.
     15,   92.3469009,   107.323044,           0.
     16,   92.3469009,   103.117798,           0.
     17,   92.3469009,   98.9125519,           0.
     18,   92.3469009,   94.7072983,           0.
     19,   92.3469009,   90.5020523,           0.
     20,   96.5740662,   85.7402878,           0.
** ... 1209 like lines cut
*Element, type=S3
  1, 287, 205, 257
  2, 259,  60, 203
  3, 243, 241, 216
  4, 258,   3,  25
  5, 318, 291, 315
  6, 203,  13,  14
  7, 233,  54, 232
  8, 205,  16,  17
  9, 346, 336, 342
 10, 206,  22, 204
 11, 207, 205,  17
 12, 208, 207,  18
 13, 209,   2,  20
 14, 210, 204,  23
 15, 256, 208, 211
 16,  35,   4,  36
 17, 227,  36,  37
 18, 309, 298, 273
 19, 242, 239,  33
 20, 239,  32,  33
** ... 2284 like lines cut
*Orientation, name=Ori-1
1., 0., 0., 0., 1., 0.
3, 0.
** Region: (CompositeLayup-1-1: Generated From Layup)
*Elset, elset=CompositeLayup-1-1, generate
    1,  2304,     1
** Section: CompositeLayup-1-1
*Shell Section, elset=CompositeLayup-1-1, composite, orientation=Ori-1, layup=CompositeLayup-1
0.25, 1, ABQ_PLY_FABRIC, 45., Ply-1
0.25, 1, ABQ_PLY_FABRIC, -45., Ply-2
0.25, 1, ABQ_PLY_FABRIC, -45., Ply-3
0.25, 1, ABQ_PLY_FABRIC, 45., Ply-4
*End Part
**  
**
** ASSEMBLY
**
*Assembly, name=Assembly
**  
*Instance, name=Plate-1, part=PLATE
*End Instance
**  
*Nset, nset=Set-1, instance=Plate-1
   6,   7,  12,  82,  83,  84,  85,  86,  87,  88,  89,  90,  91,  92, 166, 167
 168, 169, 170, 171, 172, 173, 174, 175, 176, 177, 178, 179, 180
*Elset, elset=Set-1, instance=Plate-1
  395,  396,  416,  421,  484,  488,  491,  493,  495,  497,  540,  546, 1524, 1541, 1547, 1548
 1555, 1631, 1634, 1636, 1638, 1640, 1642, 1644, 1760, 1761, 1777, 1781
*Nset, nset=Set-2, instance=Plate-1
   4,   5,  11,  36,  37,  38,  39,  40,  41,  42,  43,  44,  45,  46, 141, 142
 143, 144, 145, 146, 147, 148, 149, 150, 151, 152, 153, 154, 155
*Elset, elset=Set-2, instance=Plate-1
   16,   17,   27,   30,   31,   32,   85,   93,   95,   97,   99,  101,  976,  977,  990, 1064
 1067, 1068, 1071, 1073, 1075, 1077, 1079, 1081, 1083, 1085, 1087, 1144
*End Assembly
*Amplitude, name=Ramp, time=TOTAL TIME
             0.,              0.,            0.01,              1.
** 
** MATERIALS
** 
*Material, name=ABQ_PLY_FABRIC
*Density
 1.594e-09,
*Depvar, delete=16
     16,
*User Material, constants=40
27500., 27500.,   0.11,  2900., 27500., 27500.,   0.11,     0.
   604.,   291.,   604.,   291.,    75.,     0.,     0.,     0.
 20.438, 4.6257, 20.438, 4.6257, 0.3221,     1.,     0.,     0.
    75., 0.0008,  0.552,     0.,     0.,     0.,     0.,     0.
     0.,     1.,  1e+09,  1e+09, -1e+09,     0.,     0.,     0.
** ----------------------------------------------------------------
** 
** STEP: Step-1
** 
*Step, name=Step-1, nlgeom=NO
*Dynamic, Explicit
, 0.01
*Bulk Viscosity
0.06, 1.2
** 
** BOUNDARY CONDITIONS
** 
** Name: BC-1 Type: Symmetry/Antisymmetry/Encastre
*Boundary
Set-1, ENCASTRE
** Name: BC-2 Type: Displacement/Rotation
*Boundary, amplitude=Ramp
Set-2, 1, 1, 3.
** 
** OUTPUT REQUESTS
** 
*Restart, write, number interval=1, time marks=NO
** 
** FIELD OUTPUT: F-Output-1
** 
*Output, field, number interval=1
*Element Output, position=NODES, directions=YES
LE, PEEQ, SDV
** 
** HISTORY OUTPUT: H-Output-1
** 
*Output, history, variable=PRESELECT
*End Step
