*Heading
** Job name: Plate_nonlinear_412 Model name: Model-1
** Generated by: Abaqus/CAE 2024.HF3
*Preprint, echo=NO, model=NO, history=NO, contact=NO
**
** PARTS
**
*Part, name=PLATE
*Node
      1,   71.0750809,   159.362854,           0.
      2,   71.0750809,   112.753876,           0.
      3,    82.899147,    100.92981,           0.
      4,   112.223816,    100.92981,           0.
      5,   112.223816,   159.362854,           0.
      6,           0.,   159.362854,           0.
      7,           0.,    100.92981,           0.
      8,   59.2510147,    100.92981,           0.
      9,   71.0750809,   89.1057434,           0.
     10,   71.0750809,           0.,           0.
     11,   112.223816,           0.,           0.
     12,           0.,           0.,           0.
     13,   71.0750809,   155.125671,           0.
     14,   71.0750809,   150.888504,           0.
     15,   71.0750809,   146.651321,           0.
     16,   71.0750809,   142.414139,           0.
     17,   71.0750809,   138.176956,           0.
     18,   71.0750809,   133.939774,           0.
     19,   71.0750809,   129.702591,           0.
     20,   71.0750809,   125.465416,           0.
** ... 1184 like lines cut
*Element, type=S3
  1, 200,  14,  15
  2, 201,  14, 200
  3, 213,  24,  25
  4, 204, 203,  26
  5, 204,   3,  27
  6, 224,  37, 223
  7, 233,  51,  52
  8, 205, 200,  15
  9, 206, 205,  16
 10, 207, 206,  17
 11, 208, 207,  18
 12, 209, 208,  19
 13, 239, 222, 221
 14, 212, 211,  22
 15, 287, 212, 202
 16, 212,   2,  23
 17, 213,  25, 203
 18,  32,   4,  33
 19, 227,  33,  34
 20, 263, 249, 251
** ... 2238 like lines cut
*Orientation, name=Ori-1
1., 0., 0., 0., 1., 0.
3, 0.
** Region: (CompositeLayup-1-1: Generated From Layup)
*Elset, elset=CompositeLayup-1-1, generate
    1,  2258,     1
** Section: CompositeLayup-1-1
*Shell Section, elset=CompositeLayup-1-1, composite, orientation=Ori-1, layup=CompositeLayup-1
0.25, 1, ABQ_PLY_FABRIC, 45., Ply-1
0.25, 1, ABQ_PLY_FABRIC, -45., Ply-2
0.25, 1, ABQ_PLY_FABRIC, -45., Ply-3
0.25, 1, ABQ_PLY_FABRIC, 45., Ply-4
*End Part
**  
**
** ASSEMBLY
**
*Assembly, name=Assembly
**  
*Instance, name=Plate-1, part=PLATE
*End Instance
**  
*Nset, nset=Set-1, instance=Plate-1
   6,   7,  12,  71,  72,  73,  74,  75,  76,  77,  78,  79,  80,  81,  82,  83
 161, 162, 163, 164, 165, 166, 167, 168, 169, 170, 171, 172, 173, 174, 175, 176
 177, 178, 179, 180, 181, 182, 183
*Elset, elset=Set-1, instance=Plate-1
  314,  315,  330,  392,  393,  394,  396,  398,  400,  402,  404,  406,  430,  441, 1379, 1380
 1392, 1485, 1486, 1488, 1490, 1492, 1494, 1496, 1498, 1500, 1502, 1504, 1506, 1508, 1510, 1512
 1514, 1516, 1518, 1520, 1522, 1611
*Nset, nset=Set-2, instance=Plate-1
   4,   5,  11,  33,  34,  35,  36,  37,  38,  39,  40,  41,  42,  43,  44,  45
 130, 131, 132, 133, 134, 135, 136, 137, 138, 139, 140, 141, 142, 143, 144, 145
 146, 147, 148, 149, 150, 151, 152
*Elset, elset=Set-2, instance=Plate-1
  18,  19,  24,  80,  83,  85,  87,  89,  91,  93,  95,  97,  99, 133, 855, 864
 886, 946, 949, 951, 953, 955, 957, 959, 961, 963, 965, 967, 969, 971, 973, 975
 977, 979, 981, 983, 985, 987
*End Assembly
*Amplitude, name=Ramp, time=TOTAL TIME
             0.,              0.,            0.01,              1.
** 
** MATERIALS
** 
*Material, name=ABQ_PLY_FABRIC
*Density
 1.594e-09,
*Depvar, delete=16
     16,
*User Material, constants=40
27500., 27500.,   0.11,  2900., 27500., 27500.,   0.11,     0.
   604.,   291.,   604.,   291.,    75.,     0.,     0.,     0.
 20.438, 4.6257, 20.438, 4.6257, 0.3221,     1.,     0.,     0.
    75., 0.0008,  0.552,     0.,     0.,     0.,     0.,     0.
     0.,     1.,  1e+09,  1e+09, -1e+09,     0.,     0.,     0.
** ----------------------------------------------------------------
** 
** STEP: Step-1
** 
*Step, name=Step-1, nlgeom=NO
*Dynamic, Explicit
, 0.01
*Bulk Viscosity
0.06, 1.2
** 
** BOUNDARY CONDITIONS
** 
** Name: BC-1 Type: Symmetry/Antisymmetry/Encastre
*Boundary
Set-1, ENCASTRE
** Name: BC-2 Type: Displacement/Rotation
*Boundary, amplitude=Ramp
Set-2, 1, 1, 2.26316
** 
** OUTPUT REQUESTS
** 
*Restart, write, number interval=1, time marks=NO
** 
** FIELD OUTPUT: F-Output-1
** 
*Output, field, number interval=1
*Element Output, position=NODES, directions=YES
LE, PEEQ, SDV
** 
** HISTORY OUTPUT: H-Output-1
** 
*Output, history, variable=PRESELECT
*End Step
