*Heading
** Job name: Plate_nonlinear_142 Model name: Model-1
** Generated by: Abaqus/CAE 2024.HF3
*Preprint, echo=NO, model=NO, history=NO, contact=NO
**
** PARTS
**
*Part, name=PLATE
*Node
      1,   77.5675583,   124.878708,           0.
      2,   77.5675583,    64.587471,           0.
      3,   90.1222382,    52.032795,           0.
      4,    186.16214,    52.032795,           0.
      5,    186.16214,   124.878708,           0.
      6,           0.,   124.878708,           0.
      7,           0.,    52.032795,           0.
      8,    65.012886,    52.032795,           0.
      9,   77.5675583,   39.4781189,           0.
     10,   77.5675583,           0.,           0.
     11,    186.16214,           0.,           0.
     12,           0.,           0.,           0.
     13,   77.5675583,   120.240921,           0.
     14,   77.5675583,   115.603134,           0.
     15,   77.5675583,   110.965347,           0.
     16,   77.5675583,    106.32756,           0.
     17,   77.5675583,   101.689766,           0.
     18,   77.5675583,   97.0519791,           0.
     19,   77.5675583,   92.4141922,           0.
     20,   77.5675583,   87.7764053,           0.
** ... 1208 like lines cut
*Element, type=S3
  1, 305, 245, 304
  2, 255,  82, 199
  3, 231,  75, 230
  4, 199,  13,  14
  5, 299,   3,  28
  6, 245,  16,  17
  7, 248,  18, 200
  8, 200,  18,  19
  9, 253,  77,  78
 10, 201, 200,  19
 11, 202, 201,  20
 12, 378, 375, 321
 13, 205,  22,  23
 14, 249, 203, 205
 15, 203, 202,  21
 16, 311, 207, 204
 17, 207,   2,  25
 18, 299,  28, 219
 19,  46,   4,  47
 20, 227,  47,  48
** ... 2290 like lines cut
*Orientation, name=Ori-1
1., 0., 0., 0., 1., 0.
3, 0.
** Region: (CompositeLayup-1-1: Generated From Layup)
*Elset, elset=CompositeLayup-1-1, generate
    1,  2310,     1
** Section: CompositeLayup-1-1
*Shell Section, elset=CompositeLayup-1-1, composite, orientation=Ori-1, layup=CompositeLayup-1
0.25, 1, ABQ_PLY_FABRIC, 45., Ply-1
0.25, 1, ABQ_PLY_FABRIC, -45., Ply-2
0.25, 1, ABQ_PLY_FABRIC, -45., Ply-3
0.25, 1, ABQ_PLY_FABRIC, 45., Ply-4
*End Part
**  
**
** ASSEMBLY
**
*Assembly, name=Assembly
**  
*Instance, name=Plate-1, part=PLATE
*End Instance
**  
*Nset, nset=Set-1, instance=Plate-1
   6,   7,  12,  98,  99, 100, 101, 102, 103, 104, 105, 106, 107, 108, 109, 110
 111, 173, 174, 175, 176, 177, 178, 179, 180, 181, 182
*Elset, elset=Set-1, instance=Plate-1
  815,  816,  830,  833,  837,  906,  908,  911,  913,  915,  917,  919,  986,  988,  994, 1931
 1944, 1947, 1948, 1953, 2002, 2008, 2010, 2012, 2014, 2016
*Nset, nset=Set-2, instance=Plate-1
   4,   5,  11,  47,  48,  49,  50,  51,  52,  53,  54,  55,  56,  57,  58,  59
  60, 157, 158, 159, 160, 161, 162, 163, 164, 165, 166
*Elset, elset=Set-2, instance=Plate-1
   19,   20,   38,   43,   44,  118,  121,  123,  125,  127,  129,  131,  255,  262,  274, 1366
 1367, 1388, 1393, 1466, 1469, 1471, 1473, 1552, 1556, 1558
*End Assembly
*Amplitude, name=Ramp, time=TOTAL TIME
             0.,              0.,            0.01,              1.
** 
** MATERIALS
** 
*Material, name=ABQ_PLY_FABRIC
*Density
 1.594e-09,
*Depvar, delete=16
     16,
*User Material, constants=40
27500., 27500.,   0.11,  2900., 27500., 27500.,   0.11,     0.
   604.,   291.,   604.,   291.,    75.,     0.,     0.,     0.
 20.438, 4.6257, 20.438, 4.6257, 0.3221,     1.,     0.,     0.
    75., 0.0008,  0.552,     0.,     0.,     0.,     0.,     0.
     0.,     1.,  1e+09,  1e+09, -1e+09,     0.,     0.,     0.
** ----------------------------------------------------------------
** 
** STEP: Step-1
** 
*Step, name=Step-1, nlgeom=NO
*Dynamic, Explicit
, 0.01
*Bulk Viscosity
0.06, 1.2
** 
** BOUNDARY CONDITIONS
** 
** Name: BC-1 Type: Symmetry/Antisymmetry/Encastre
*Boundary
Set-1, ENCASTRE
** Name: BC-2 Type: Displacement/Rotation
*Boundary, amplitude=Ramp
Set-2, 1, 1, 1.21053
** 
** OUTPUT REQUESTS
** 
*Restart, write, number interval=1, time marks=NO
** 
** FIELD OUTPUT: F-Output-1
** 
*Output, field, number interval=1
*Element Output, position=NODES, directions=YES
LE, PEEQ, SDV
** 
** HISTORY OUTPUT: H-Output-1
** 
*Output, history, variable=PRESELECT
*End Step
