*Heading
 Elastic fabric composite plate with hole
** Job name: Plate_362 Model name: Model-1
** Generated by: Abaqus/CAE 2024.HF3
*Preprint, echo=NO, model=NO, history=NO, contact=NO
**
** PARTS
**
*Part, name=PLATE
*Node
      1,   95.8740005,   192.187424,           0.
      2,   95.8740005,    126.19738,           0.
      3,   106.758926,   115.312454,           0.
      4,   159.789993,   115.312454,           0.
      5,   159.789993,   192.187424,           0.
      6,           0.,   192.187424,           0.
      7,           0.,   115.312454,           0.
      8,   84.9890747,   115.312454,           0.
      9,   95.8740005,   104.427528,           0.
     10,   95.8740005,           0.,           0.
     11,   159.789993,           0.,           0.
     12,           0.,           0.,           0.
     13,   95.8740005,   186.688248,           0.
     14,   95.8740005,   181.189087,           0.
     15,   95.8740005,   175.689911,           0.
     16,   95.8740005,   170.190735,           0.
     17,   95.8740005,   164.691574,           0.
     18,   95.8740005,   159.192398,           0.
     19,   95.8740005,   153.693237,           0.
     20,   95.8740005,   148.194061,           0.
** ... 1190 like lines cut
*Element, type=S3
  1, 254,  15, 195
  2, 316,  13,  14
  3, 255, 201, 202
  4, 194,   3,  26
  5, 293, 262, 278
  6, 195,  15,  16
  7, 234, 223,  53
  8, 196, 195,  16
  9, 197, 196,  17
 10, 198, 197,  18
 11, 199, 198,  19
 12, 200, 199,  20
 13, 201, 200,  21
 14, 202, 201,  22
 15, 288, 203, 193
 16, 203,   2,  24
 17,  34,   4,  35
 18, 204,  34,  35
 19, 221,  37, 220
 20, 205,  32,  33
** ... 2260 like lines cut
*Orientation, name=Ori-1
1., 0., 0., 0., 1., 0.
3, 0.
** Region: (CompositeLayup-1-1: Generated From Layup)
*Elset, elset=CompositeLayup-1-1, generate
    1,  2280,     1
** Section: CompositeLayup-1-1
*Shell Section, elset=CompositeLayup-1-1, composite, orientation=Ori-1, layup=CompositeLayup-1, symmetric
0.25, 3, CFRP, 0., Ply-1
0.25, 3, CFRP, 45., Ply-2
0.25, 3, CFRP, 90., Ply-3
0.25, 3, CFRP, -45., Ply-4
*End Part
**  
**
** ASSEMBLY
**
*Assembly, name=Assembly
**  
*Instance, name=Plate-1, part=PLATE
*End Instance
**  
*Nset, nset=Set-1, instance=Plate-1
   6,   7,  12,  75,  76,  77,  78,  79,  80,  81,  82,  83,  84,  85,  86,  87
 157, 158, 159, 160, 161, 162, 163, 164, 165, 166, 167, 168, 169, 170, 171, 172
 173, 174, 175, 176
*Elset, elset=Set-1, instance=Plate-1
  390,  391,  406,  412,  470,  472,  474,  478,  480,  482,  484,  486,  488,  490, 1485, 1486
 1499, 1586, 1587, 1588, 1590, 1592, 1594, 1596, 1598, 1600, 1602, 1604, 1606, 1608, 1610, 1612
 1614, 1616, 1618
*Nset, nset=Set-2, instance=Plate-1
   4,   5,  11,  35,  36,  37,  38,  39,  40,  41,  42,  43,  44,  45,  46,  47
 133, 134, 135, 136, 137, 138, 139, 140, 141, 142, 143, 144, 145, 146, 147, 148
 149, 150, 151, 152
*Elset, elset=Set-2, instance=Plate-1
   17,   26,   38,   88,   91,   93,   95,   97,   99,  101,  103,  105,  107,  155,  928,  939
  958, 1000, 1003, 1005, 1007, 1009, 1011, 1013, 1015, 1017, 1019, 1021, 1023, 1025, 1027, 1029
 1031, 1033, 1090
*End Assembly
** 
** MATERIALS
** 
*Material, name=CFRP
*Elastic, type=ENGINEERING CONSTANTS
150000.,9000.,9000., 0.34, 0.34,  0.4,5000.,5000.
5000.,
** ----------------------------------------------------------------
** 
** STEP: Step-1
** 
*Step, name=Step-1, nlgeom=NO
*Static
1., 1., 1e-05, 1.
** 
** BOUNDARY CONDITIONS
** 
** Name: BC-1 Type: Symmetry/Antisymmetry/Encastre
*Boundary
Set-1, ENCASTRE
** Name: DISPLACEMENT Type: Displacement/Rotation
*Boundary
Set-2, 1, 1, 1.10526
** 
** OUTPUT REQUESTS
** 
*Restart, write, frequency=0
** 
** FIELD OUTPUT: F-Output-1
** 
*Output, field
*Element Output, position=NODES, directions=YES
E, 
** 
** HISTORY OUTPUT: H-Output-1
** 
*Output, history, variable=PRESELECT
*End Step
