*Heading
 Elastic fabric composite plate with hole
** Job name: Plate_20 Model name: Model-1
** Generated by: Abaqus/CAE 2024.HF3
*Preprint, echo=NO, model=NO, history=NO, contact=NO
**
** PARTS
**
*Part, name=PLATE
*Node
      1,   50.6241837,   115.601868,           0.
      2,   50.6241837,    48.167202,           0.
      3,   62.1841316,   36.6072578,           0.
      4,   159.865845,   36.6072578,           0.
      5,   159.865845,   115.601868,           0.
      6,           0.,   115.601868,           0.
      7,           0.,   36.6072578,           0.
      8,   39.0642395,   36.6072578,           0.
      9,   50.6241837,   25.0473118,           0.
     10,   50.6241837,           0.,           0.
     11,   159.865845,           0.,           0.
     12,           0.,           0.,           0.
     13,   50.6241837,   111.387199,           0.
     14,   50.6241837,   107.172531,           0.
     15,   50.6241837,   102.957863,           0.
     16,   50.6241837,   98.7432022,           0.
     17,   50.6241837,   94.5285339,           0.
     18,   50.6241837,   90.3138657,           0.
     19,   50.6241837,   86.0991974,           0.
     20,   50.6241837,   81.8845367,           0.
** ... 1220 like lines cut
*Element, type=S3
   1, 381, 202, 313
   2, 269,  95, 202
   3, 200, 199,  30
   4, 200,   3,  31
   5, 270, 236, 235
   6, 202,  13,  14
   7, 403, 331, 330
   8, 349,  18, 285
   9, 285,  18,  19
  10, 286,  20, 203
  11, 203,  20,  21
  12, 265,  87,  88
  13, 204, 203,  21
  14, 205, 204,  22
  15, 206, 205,  23
  16, 221,  35, 220
  17, 208, 207,  25
  18, 284, 208, 210
  19, 209,  29, 199
  20, 376, 211, 209
** ... 2312 like lines cut
*Orientation, name=Ori-1
1., 0., 0., 0., 1., 0.
3, 0.
** Region: (CompositeLayup-1-1: Generated From Layup)
*Elset, elset=CompositeLayup-1-1, generate
    1,  2332,     1
** Section: CompositeLayup-1-1
*Shell Section, elset=CompositeLayup-1-1, composite, orientation=Ori-1, layup=CompositeLayup-1, symmetric
0.25, 3, CFRP, 0., Ply-1
0.25, 3, CFRP, 45., Ply-2
0.25, 3, CFRP, 90., Ply-3
0.25, 3, CFRP, -45., Ply-4
*End Part
**  
**
** ASSEMBLY
**
*Assembly, name=Assembly
**  
*Instance, name=Plate-1, part=PLATE
*End Instance
**  
*Nset, nset=Set-1, instance=Plate-1
   6,   7,  12, 107, 108, 109, 110, 111, 112, 113, 114, 115, 116, 117, 118, 119
 120, 121, 122, 123, 124, 180, 181, 182, 183, 184, 185, 186, 187
*Elset, elset=Set-1, instance=Plate-1
 1126, 1127, 1137, 1140, 1201, 1203, 1206, 1208, 1210, 1212, 1214, 1216, 1218, 1220, 1222, 1224
 1226, 1228, 1230, 2122, 2123, 2130, 2172, 2173, 2176, 2178, 2180, 2182
*Nset, nset=Set-2, instance=Plate-1
   4,   5,  11,  53,  54,  55,  56,  57,  58,  59,  60,  61,  62,  63,  64,  65
  66,  67,  68,  69,  70, 166, 167, 168, 169, 170, 171, 172, 173
*Elset, elset=Set-2, instance=Plate-1
   22,   23,   44,   50,   52,  139,  142,  144,  146,  148,  150,  152,  154,  156,  185,  192
  195,  213,  217, 1620, 1621, 1645, 1691, 1730, 1732, 1734, 1736, 1785
*End Assembly
** 
** MATERIALS
** 
*Material, name=CFRP
*Elastic, type=ENGINEERING CONSTANTS
150000.,9000.,9000., 0.34, 0.34,  0.4,5000.,5000.
5000.,
** ----------------------------------------------------------------
** 
** STEP: Step-1
** 
*Step, name=Step-1, nlgeom=NO
*Static
1., 1., 1e-05, 1.
** 
** BOUNDARY CONDITIONS
** 
** Name: BC-1 Type: Symmetry/Antisymmetry/Encastre
*Boundary
Set-1, ENCASTRE
** Name: DISPLACEMENT Type: Displacement/Rotation
*Boundary
Set-2, 1, 1, 1.
** 
** OUTPUT REQUESTS
** 
*Restart, write, frequency=0
** 
** FIELD OUTPUT: F-Output-1
** 
*Output, field
*Element Output, position=NODES, directions=YES
E, 
** 
** HISTORY OUTPUT: H-Output-1
** 
*Output, history, variable=PRESELECT
*End Step
