*Heading
 Elastic fabric composite plate with hole
** Job name: Plate_231 Model name: Model-1
** Generated by: Abaqus/CAE 2024.HF3
*Preprint, echo=NO, model=NO, history=NO, contact=NO
**
** PARTS
**
*Part, name=PLATE
*Node
      1,   94.1961365,   196.563202,           0.
      2,   94.1961365,   113.089523,           0.
      3,   112.280106,   95.0055466,           0.
      4,    194.88855,   95.0055466,           0.
      5,    194.88855,   196.563202,           0.
      6,           0.,   196.563202,           0.
      7,           0.,   95.0055466,           0.
      8,   76.1121597,   95.0055466,           0.
      9,   94.1961365,   76.9215775,           0.
     10,   94.1961365,           0.,           0.
     11,    194.88855,           0.,           0.
     12,           0.,           0.,           0.
     13,   94.1961365,     190.6008,           0.
     14,   94.1961365,   184.638397,           0.
     15,   94.1961365,    178.67598,           0.
     16,   94.1961365,   172.713577,           0.
     17,   94.1961365,   166.751175,           0.
     18,   94.1961365,   160.788773,           0.
     19,   94.1961365,   154.826355,           0.
     20,   94.1961365,   148.863953,           0.
** ... 1225 like lines cut
*Element, type=S3
  1, 283, 272, 198
  2, 272,  73, 198
  3, 254, 205, 248
  4, 198,  13,  14
  5, 200, 199,  29
  6, 200,   3,  30
  7, 251,  17, 201
  8, 201,  17,  18
  9, 268,  66,  67
 10, 202, 201,  18
 11, 203, 202,  19
 12, 205,  21,  22
 13, 204, 203,  20
 14, 206, 205,  22
 15, 422, 396, 364
 16, 207, 206,  23
 17, 333, 285, 209
 18, 333, 210, 208
 19, 210,   2,  26
 20, 211,  28, 199
** ... 2322 like lines cut
*Orientation, name=Ori-1
1., 0., 0., 0., 1., 0.
3, 0.
** Region: (CompositeLayup-1-1: Generated From Layup)
*Elset, elset=CompositeLayup-1-1, generate
    1,  2342,     1
** Section: CompositeLayup-1-1
*Shell Section, elset=CompositeLayup-1-1, composite, orientation=Ori-1, layup=CompositeLayup-1, symmetric
0.25, 3, CFRP, 0., Ply-1
0.25, 3, CFRP, 45., Ply-2
0.25, 3, CFRP, 90., Ply-3
0.25, 3, CFRP, -45., Ply-4
*End Part
**  
**
** ASSEMBLY
**
*Assembly, name=Assembly
**  
*Instance, name=Plate-1, part=PLATE
*End Instance
**  
*Nset, nset=Set-1, instance=Plate-1
   6,   7,  12,  88,  89,  90,  91,  92,  93,  94,  95,  96,  97,  98,  99, 100
 101, 102, 103, 169, 170, 171, 172, 173, 174, 175, 176, 177, 178, 179, 180, 181
 182, 183
*Elset, elset=Set-1, instance=Plate-1
  648,  649,  662,  733,  734,  735,  737,  739,  741,  743,  745,  747,  749,  751,  753,  755
  794, 1823, 1824, 1834, 1898, 1899, 1902, 1904, 1906, 1908, 1910, 1912, 1914, 1916, 1918, 1920
 1922,
*Nset, nset=Set-2, instance=Plate-1
   4,   5,  11,  43,  44,  45,  46,  47,  48,  49,  50,  51,  52,  53,  54,  55
  56,  57,  58, 146, 147, 148, 149, 150, 151, 152, 153, 154, 155, 156, 157, 158
 159, 160
*Elset, elset=Set-2, instance=Plate-1
   21,   22,   34,  104,  105,  106,  108,  110,  112,  114,  116,  118,  120,  122,  124,  126
  128, 1226, 1227, 1241, 1311, 1312, 1313, 1315, 1317, 1319, 1321, 1323, 1325, 1327, 1329, 1331
 1390,
*End Assembly
** 
** MATERIALS
** 
*Material, name=CFRP
*Elastic, type=ENGINEERING CONSTANTS
150000.,9000.,9000., 0.34, 0.34,  0.4,5000.,5000.
5000.,
** ----------------------------------------------------------------
** 
** STEP: Step-1
** 
*Step, name=Step-1, nlgeom=NO
*Static
1., 1., 1e-05, 1.
** 
** BOUNDARY CONDITIONS
** 
** Name: BC-1 Type: Symmetry/Antisymmetry/Encastre
*Boundary
Set-1, ENCASTRE
** Name: DISPLACEMENT Type: Displacement/Rotation
*Boundary
Set-2, 1, 1, 1.57895
** 
** OUTPUT REQUESTS
** 
*Restart, write, frequency=0
** 
** FIELD OUTPUT: F-Output-1
** 
*Output, field
*Element Output, position=NODES, directions=YES
E, 
** 
** HISTORY OUTPUT: H-Output-1
** 
*Output, history, variable=PRESELECT
*End Step
