*Heading
** Job name: Plate_281 Model name: Model-1
** Generated by: Abaqus/CAE 2024.HF3
*Preprint, echo=NO, model=NO, history=NO, contact=NO
**
** PARTS
**
*Part, name=PLATE
*Node
      1,     89.04599,   151.114685,           0.
      2,     89.04599,   100.122559,           0.
      3,   108.574051,   80.5944977,           0.
      4,   166.961227,   80.5944977,           0.
      5,   166.961227,   151.114685,           0.
      6,           0.,   151.114685,           0.
      7,           0.,   80.5944977,           0.
      8,   69.5179291,   80.5944977,           0.
      9,     89.04599,    61.066433,           0.
     10,     89.04599,           0.,           0.
     11,   166.961227,           0.,           0.
     12,           0.,           0.,           0.
     13,     89.04599,   146.015472,           0.
     14,     89.04599,    140.91626,           0.
     15,     89.04599,   135.817047,           0.
     16,     89.04599,   130.717834,           0.
     17,     89.04599,   125.618622,           0.
     18,     89.04599,   120.519409,           0.
     19,     89.04599,   115.420197,           0.
     20,     89.04599,   110.320984,           0.
** ... 1160 like lines cut
*Element, type=S3
  1, 272, 271,  15
  2, 303, 271, 272
  3, 218,  45, 217
  4, 335,  13,  14
  5, 280, 279, 240
  6, 198,   3,  27
  7, 267,  17, 199
  8, 199,  17,  18
  9, 231,  58, 230
 10, 200, 199,  18
 11, 293, 289, 252
 12, 201,  24, 197
 13, 202, 200,  19
 14, 203, 202,  20
 15, 204,   2,  22
 16, 205,  25,  26
 17, 269, 203, 206
 18,  37,   4,  38
 19, 207,  37,  38
 20, 223,  40, 222
** ... 2188 like lines cut
*Orientation, name=Ori-1
1., 0., 0., 0., 1., 0.
3, 0.
** Region: (CompositeLayup-1-1: Generated From Layup)
*Elset, elset=CompositeLayup-1-1, generate
    1,  2208,     1
** Section: CompositeLayup-1-1
*Shell Section, elset=CompositeLayup-1-1, composite, orientation=Ori-1, layup=CompositeLayup-1, symmetric
0.25, 3, CFRP, 0., Ply-1
0.25, 3, CFRP, 45., Ply-2
0.25, 3, CFRP, 90., Ply-3
0.25, 3, CFRP, -45., Ply-4
*End Part
**  
**
** ASSEMBLY
**
*Assembly, name=Assembly
**  
*Instance, name=Plate-1, part=PLATE
*End Instance
**  
*Nset, nset=Set-1, instance=Plate-1
   6,   7,  12,  83,  84,  85,  86,  87,  88,  89,  90,  91,  92,  93,  94,  95
 165, 166, 167, 168, 169, 170, 171, 172, 173, 174, 175, 176, 177, 178, 179
*Elset, elset=Set-1, instance=Plate-1
  494,  511,  523,  578,  579,  580,  582,  584,  586,  588,  590,  592,  668,  671, 1596, 1597
 1609, 1675, 1676, 1678, 1680, 1682, 1684, 1686, 1688, 1690, 1692, 1694, 1696, 1797
*Nset, nset=Set-2, instance=Plate-1
   4,   5,  11,  38,  39,  40,  41,  42,  43,  44,  45,  46,  47,  48,  49,  50
 140, 141, 142, 143, 144, 145, 146, 147, 148, 149, 150, 151, 152, 153, 154
*Elset, elset=Set-2, instance=Plate-1
   18,   29,   34,   41,   97,  100,  102,  104,  106,  108,  110,  178,  181,  193, 1026, 1038
 1067, 1125, 1128, 1130, 1131, 1134, 1136, 1138, 1140, 1142, 1144, 1146, 1148, 1150
*End Assembly
** 
** MATERIALS
** 
*Material, name=CFRP
*Elastic, type=ENGINEERING CONSTANTS
150000.,9000.,9000., 0.34, 0.34,  0.4,5000.,5000.
5000.,
** ----------------------------------------------------------------
** 
** STEP: Step-1
** 
*Step, name=Step-1, nlgeom=NO
*Static
1., 1., 1e-05, 1.
** 
** BOUNDARY CONDITIONS
** 
** Name: BC-1 Type: Symmetry/Antisymmetry/Encastre
*Boundary
Set-1, ENCASTRE
** Name: DISPLACEMENT Type: Displacement/Rotation
*Boundary
Set-2, 1, 1, 1.05263
** 
** OUTPUT REQUESTS
** 
*Restart, write, frequency=0
** 
** FIELD OUTPUT: F-Output-1
** 
*Output, field
*Element Output, position=NODES, directions=YES
E, 
** 
** HISTORY OUTPUT: H-Output-1
** 
*Output, history, variable=PRESELECT
*End Step
