*Heading
** Job name: Plate_352 Model name: Model-1
** Generated by: Abaqus/CAE 2024.HF3
*Preprint, echo=NO, model=NO, history=NO, contact=NO
**
** PARTS
**
*Part, name=PLATE
*Node
      1,   110.558716,    176.41922,           0.
      2,   110.558716,   115.167267,           0.
      3,   122.814766,   102.911209,           0.
      4,   189.529221,   102.911209,           0.
      5,   189.529221,    176.41922,           0.
      6,           0.,    176.41922,           0.
      7,           0.,   102.911209,           0.
      8,   98.3026581,   102.911209,           0.
      9,   110.558716,   90.6551514,           0.
     10,   110.558716,           0.,           0.
     11,   189.529221,           0.,           0.
     12,           0.,           0.,           0.
     13,   110.558716,   170.850861,           0.
     14,   110.558716,   165.282501,           0.
     15,   110.558716,   159.714142,           0.
     16,   110.558716,   154.145782,           0.
     17,   110.558716,   148.577423,           0.
     18,   110.558716,   143.009064,           0.
     19,   110.558716,   137.440704,           0.
     20,   110.558716,   131.872345,           0.
** ... 1205 like lines cut
*Element, type=S3
  1, 242,  60, 193
  2, 193,  13,  14
  3, 305, 304, 274
  4, 195,   3,  25
  5, 225, 205, 204
  6, 232,  16, 196
  7, 196,  16,  17
  8, 237,  54,  55
  9, 197, 196,  17
 10, 198, 197,  18
 11, 199, 198,  19
 12, 200, 199,  20
 13, 202, 201,  22
 14, 287, 202,  23
 15, 202,   2,  23
 16,  35,   4,  36
 17, 203,  35,  36
 18, 226,  34, 203
 19, 269, 215, 251
 20, 259, 228, 227
** ... 2290 like lines cut
*Orientation, name=Ori-1
1., 0., 0., 0., 1., 0.
3, 0.
** Region: (CompositeLayup-1-1: Generated From Layup)
*Elset, elset=CompositeLayup-1-1, generate
    1,  2310,     1
** Section: CompositeLayup-1-1
*Shell Section, elset=CompositeLayup-1-1, composite, orientation=Ori-1, layup=CompositeLayup-1, symmetric
0.25, 3, CFRP, 0., Ply-1
0.25, 3, CFRP, 45., Ply-2
0.25, 3, CFRP, 90., Ply-3
0.25, 3, CFRP, -45., Ply-4
*End Part
**  
**
** ASSEMBLY
**
*Assembly, name=Assembly
**  
*Instance, name=Plate-1, part=PLATE
*End Instance
**  
*Nset, nset=Set-1, instance=Plate-1
   6,   7,  12,  79,  80,  81,  82,  83,  84,  85,  86,  87,  88,  89,  90, 158
 159, 160, 161, 162, 163, 164, 165, 166, 167, 168, 169, 170, 171, 172, 173, 174
*Elset, elset=Set-1, instance=Plate-1
  421,  422,  428,  439,  489,  510,  512,  518,  520,  522,  524,  526,  528, 1550, 1551, 1566
 1638, 1639, 1640, 1642, 1644, 1646, 1648, 1650, 1652, 1654, 1656, 1658, 1660, 1662, 1664
*Nset, nset=Set-2, instance=Plate-1
   4,   5,  11,  36,  37,  38,  39,  40,  41,  42,  43,  44,  45,  46,  47, 137
 138, 139, 140, 141, 142, 143, 144, 145, 146, 147, 148, 149, 150, 151, 152, 153
*Elset, elset=Set-2, instance=Plate-1
   16,   27,   38,   82,   83,   85,   87,   89,   91,   93,   95,   97,  170,  979,  980,  992
 1070, 1073, 1075, 1077, 1079, 1081, 1083, 1085, 1087, 1089, 1091, 1093, 1095, 1097, 1160
*End Assembly
** 
** MATERIALS
** 
*Material, name=CFRP
*Elastic, type=ENGINEERING CONSTANTS
150000.,9000.,9000., 0.34, 0.34,  0.4,5000.,5000.
5000.,
** ----------------------------------------------------------------
** 
** STEP: Step-1
** 
*Step, name=Step-1, nlgeom=NO
*Static
1., 1., 1e-05, 1.
** 
** BOUNDARY CONDITIONS
** 
** Name: BC-1 Type: Symmetry/Antisymmetry/Encastre
*Boundary
Set-1, ENCASTRE
** Name: DISPLACEMENT Type: Displacement/Rotation
*Boundary
Set-2, 1, 1, 1.63158
** 
** OUTPUT REQUESTS
** 
*Restart, write, frequency=0
** 
** FIELD OUTPUT: F-Output-1
** 
*Output, field
*Element Output, position=NODES, directions=YES
E, 
** 
** HISTORY OUTPUT: H-Output-1
** 
*Output, history, variable=PRESELECT
*End Step
