*Heading
** Job name: Plate_468 Model name: Model-1
** Generated by: Abaqus/CAE 2024.HF3
*Preprint, echo=NO, model=NO, history=NO, contact=NO
**
** PARTS
**
*Part, name=PLATE
*Node
      1,   131.171158,   116.125656,           0.
      2,   131.171158,   90.4157333,           0.
      3,    142.23436,   79.3525314,           0.
      4,   191.957794,   79.3525314,           0.
      5,   191.957794,   116.125656,           0.
      6,           0.,   116.125656,           0.
      7,           0.,   79.3525314,           0.
      8,   120.107964,   79.3525314,           0.
      9,   131.171158,   68.2893372,           0.
     10,   131.171158,           0.,           0.
     11,   191.957794,           0.,           0.
     12,           0.,           0.,           0.
     13,   131.171158,   110.983673,           0.
     14,   131.171158,    105.84169,           0.
     15,   131.171158,   100.699699,           0.
     16,   131.171158,   95.5577164,           0.
     17,   135.404861,   89.5735931,           0.
     18,   138.994019,   87.1753922,           0.
     19,   141.392227,    83.586235,           0.
     20,   146.754669,   79.3525314,           0.
** ... 1224 like lines cut
*Element, type=S3
  1, 202,  18,  19
  2, 252, 248, 222
  3, 225,  44, 224
  4, 204,  13,  14
  5, 205,   3,  20
  6, 206,  17,  18
  7, 209, 208,  16
  8, 249, 209, 206
  9, 209,   2,  17
 10, 224,  45, 223
 11,  29,   4,  30
 12, 210,  29,  30
 13, 231, 211,  27
 14, 231,  27,  28
 15, 228,  41, 227
 16, 212,  26, 211
 17, 294, 262, 286
 18, 214,  23, 203
 19, 215,  22, 214
 20, 215,  21,  22
** ... 2320 like lines cut
*Orientation, name=Ori-1
1., 0., 0., 0., 1., 0.
3, 0.
** Region: (CompositeLayup-1-1: Generated From Layup)
*Elset, elset=CompositeLayup-1-1, generate
    1,  2340,     1
** Section: CompositeLayup-1-1
*Shell Section, elset=CompositeLayup-1-1, composite, orientation=Ori-1, layup=CompositeLayup-1, symmetric
0.25, 3, CFRP, 0., Ply-1
0.25, 3, CFRP, 45., Ply-2
0.25, 3, CFRP, 90., Ply-3
0.25, 3, CFRP, -45., Ply-4
*End Part
**  
**
** ASSEMBLY
**
*Assembly, name=Assembly
**  
*Instance, name=Plate-1, part=PLATE
*End Instance
**  
*Nset, nset=Set-1, instance=Plate-1
   6,   7,  12,  76,  77,  78,  79,  80,  81,  82, 159, 160, 161, 162, 163, 164
 165, 166, 167, 168, 169, 170, 171, 172, 173, 174
*Elset, elset=Set-1, instance=Plate-1
  235,  236,  262,  356,  358,  360,  362,  415, 1251, 1252, 1276, 1281, 1283, 1377, 1380, 1382
 1384, 1386, 1388, 1390, 1392, 1510, 1511, 1515, 1519
*Nset, nset=Set-2, instance=Plate-1
   4,   5,  11,  30,  31,  32,  33,  34,  35,  36, 137, 138, 139, 140, 141, 142
 143, 144, 145, 146, 147, 148, 149, 150, 151, 152
*Elset, elset=Set-2, instance=Plate-1
  11,  21,  24,  27,  71,  72,  75,  77, 740, 741, 752, 756, 829, 831, 834, 836
 838, 840, 842, 844, 846, 848, 850, 852, 921
*End Assembly
** 
** MATERIALS
** 
*Material, name=CFRP
*Elastic, type=ENGINEERING CONSTANTS
150000.,9000.,9000., 0.34, 0.34,  0.4,5000.,5000.
5000.,
** ----------------------------------------------------------------
** 
** STEP: Step-1
** 
*Step, name=Step-1, nlgeom=NO
*Static
1., 1., 1e-05, 1.
** 
** BOUNDARY CONDITIONS
** 
** Name: BC-1 Type: Symmetry/Antisymmetry/Encastre
*Boundary
Set-1, ENCASTRE
** Name: DISPLACEMENT Type: Displacement/Rotation
*Boundary
Set-2, 1, 1, 1.42105
** 
** OUTPUT REQUESTS
** 
*Restart, write, frequency=0
** 
** FIELD OUTPUT: F-Output-1
** 
*Output, field
*Element Output, position=NODES, directions=YES
E, 
** 
** HISTORY OUTPUT: H-Output-1
** 
*Output, history, variable=PRESELECT
*End Step
